/*--------------------------------*- C++ -*----------------------------------*\
| =========                 |                                                 |
| \\      /  F ield         | OpenFOAM: The Open Source CFD Toolbox           |
|  \\    /   O peration     | Version:  3.0.1                                 |
|   \\  /    A nd           | Web:      www.OpenFOAM.org                      |
|    \\/     M anipulation  |                                                 |
\*---------------------------------------------------------------------------*/
FoamFile
{
    version     2.0;
    format      ascii;
    class       volScalarField;
    location    "0";
    object      ElsaSigmaPrime;
}
// * * * * * * * * * * * * * * * * * * * * * * * * * * * * * * * * * * * * * //

dimensions      [0 -1 0 0 0 0 0];

internalField   uniform 1;

boundaryField
{
    inletL
    {
        type            fixedValue;
        value           uniform 0;//1E+5;
    }
    outlet
    {
        type            inletOutlet;
        inletValue      uniform 0;
        value           uniform 0;
    }
    lateral
    {
        type            inletOutlet;
        inletValue      uniform 0;
        value           uniform 0;
    }
    wallInlet
    {
        type            inletOutlet;
        inletValue      uniform 0;
        value           uniform 0;
    }
}


// ************************************************************************* //
